Version 4
SHEET 1 2912 1056
WIRE 288 -160 160 -160
WIRE 480 -160 368 -160
WIRE 1040 -160 928 -160
WIRE 1248 -160 1120 -160
WIRE -128 -96 -176 -96
WIRE 256 -96 160 -96
WIRE 368 -96 256 -96
WIRE 1152 -96 1040 -96
WIRE 1248 -96 1152 -96
WIRE 1584 -96 1536 -96
WIRE 368 -80 368 -96
WIRE 1040 -80 1040 -96
WIRE -128 -32 -192 -32
WIRE 256 -32 160 -32
WIRE 1248 -32 1152 -32
WIRE 1600 -32 1536 -32
WIRE 368 16 368 0
WIRE 1040 16 1040 0
WIRE -128 32 -160 32
WIRE 528 32 528 -144
WIRE 656 32 528 32
WIRE 880 32 880 -144
WIRE 880 32 736 32
WIRE 1568 32 1536 32
WIRE -160 48 -160 32
WIRE 1568 48 1568 32
WIRE -128 96 -192 96
WIRE 224 96 224 64
WIRE 224 96 160 96
WIRE 368 96 368 80
WIRE 368 96 224 96
WIRE 1040 96 1040 80
WIRE 1184 96 1184 64
WIRE 1184 96 1040 96
WIRE 1248 96 1184 96
WIRE 1600 96 1536 96
WIRE 256 128 256 -32
WIRE 528 128 528 32
WIRE 528 128 256 128
WIRE 880 128 880 32
WIRE 1152 128 1152 -32
WIRE 1152 128 880 128
WIRE 528 144 528 128
WIRE 880 144 880 128
WIRE -128 160 -160 160
WIRE 224 160 160 160
WIRE 1248 160 1184 160
WIRE 1568 160 1536 160
WIRE -160 176 -160 160
WIRE 1568 176 1568 160
WIRE 288 224 160 224
WIRE 480 224 368 224
WIRE 1040 224 928 224
WIRE 1248 224 1120 224
WIRE 224 272 224 160
WIRE 528 272 528 240
WIRE 528 272 224 272
WIRE 880 272 880 240
WIRE 1184 272 1184 160
WIRE 1184 272 880 272
WIRE 528 304 528 272
WIRE 880 304 880 272
FLAG 1280 528 0
FLAG 1184 528 0
FLAG 1072 528 0
FLAG 1280 448 V40
FLAG 1184 448 V12
FLAG 1072 448 V6
FLAG 208 528 0
FLAG 656 528 0
FLAG 656 448 Q
FLAG 208 448 Qneg
FLAG -176 -96 V6
FLAG 224 64 V12
FLAG -160 48 0
FLAG 528 -240 V40
FLAG -192 -32 Q
FLAG -192 96 Qneg
FLAG -160 176 0
FLAG 1584 -96 V6
FLAG 1184 64 V12
FLAG 1568 48 0
FLAG 880 -240 V40
FLAG 1568 176 0
FLAG 528 304 0
FLAG 880 304 0
FLAG 1600 96 Q
FLAG 1600 -32 Qneg
SYMBOL voltage 1280 432 R0
WINDOW 123 0 0 Left 0
WINDOW 39 0 0 Left 0
SYMATTR InstName V1
SYMATTR Value 40
SYMBOL voltage 1184 432 R0
WINDOW 123 0 0 Left 0
WINDOW 39 0 0 Left 0
SYMATTR InstName V2
SYMATTR Value 12
SYMBOL voltage 1072 432 R0
WINDOW 123 0 0 Left 0
WINDOW 39 0 0 Left 0
SYMATTR InstName V3
SYMATTR Value 6
SYMBOL voltage 656 432 R0
WINDOW 123 0 0 Left 0
WINDOW 39 0 0 Left 0
SYMATTR InstName V4
SYMATTR Value PULSE(0 6 0 1p 1p 2.4u 5u)
SYMBOL voltage 208 432 R0
WINDOW 123 0 0 Left 0
WINDOW 39 0 0 Left 0
SYMATTR InstName V5
SYMATTR Value PULSE(0 6 2.5u 1p 1p 2.4u 5u)
SYMBOL diode 384 80 R180
WINDOW 0 -24 -7 Left 2
WINDOW 3 -67 59 Left 2
SYMATTR InstName D1
SYMATTR Value MURS120
SYMBOL cap 240 -96 R0
SYMATTR InstName C1
SYMATTR Value 0.33µ
SYMBOL res 384 208 R90
WINDOW 0 0 56 VBottom 2
WINDOW 3 32 56 VTop 2
SYMATTR InstName R1
SYMATTR Value 10
SYMBOL res 384 -176 R90
WINDOW 0 0 56 VBottom 2
WINDOW 3 32 56 VTop 2
SYMATTR InstName R2
SYMATTR Value 10
SYMBOL nmos 480 -240 R0
SYMATTR InstName Nchan1
SYMATTR Value IRF530
SYMBOL nmos 480 144 R0
SYMATTR InstName Nchan2
SYMATTR Value IRF530
SYMBOL ZZZ\\GATEDRV\\IR\\IR2110_ 16 32 R0
SYMATTR InstName U1
SYMBOL res 352 -96 R0
SYMATTR InstName R4
SYMATTR Value 4.7
SYMBOL cap 208 96 R0
SYMATTR InstName C2
SYMATTR Value 1µ
SYMBOL diode 1024 80 M180
WINDOW 0 -24 -7 Left 2
WINDOW 3 -67 59 Left 2
SYMATTR InstName D2
SYMATTR Value MURS120
SYMBOL cap 1168 -96 M0
SYMATTR InstName C3
SYMATTR Value 0.33µ
SYMBOL res 1024 208 M90
WINDOW 0 0 56 VBottom 2
WINDOW 3 32 56 VTop 2
SYMATTR InstName R3
SYMATTR Value 10
SYMBOL res 1024 -176 M90
WINDOW 0 0 56 VBottom 2
WINDOW 3 32 56 VTop 2
SYMATTR InstName R5
SYMATTR Value 10
SYMBOL nmos 928 -240 M0
SYMATTR InstName Nchan3
SYMATTR Value IRF530
SYMBOL nmos 928 144 M0
SYMATTR InstName Nchan4
SYMATTR Value IRF530
SYMBOL ZZZ\\GATEDRV\\IR\\IR2110_ 1392 32 M0
SYMATTR InstName U2
SYMBOL res 1056 -96 M0
SYMATTR InstName R6
SYMATTR Value 4.7
SYMBOL cap 1200 96 M0
SYMATTR InstName C4
SYMATTR Value 1µ
SYMBOL res 752 16 R90
WINDOW 0 0 56 VBottom 2
WINDOW 3 32 56 VTop 2
SYMATTR InstName R7
SYMATTR Value 8
TEXT 1120 624 Left 2 !.tran 0 60u 0
